/*--------------------------------*- C++ -*----------------------------------*\
| =========                 |                                                 |
| \\      /  F ield         | OpenFOAM: The Open Source CFD Toolbox           |
|  \\    /   O peration     | Version:  2.1.1                                 |
|   \\  /    A nd           | Web:      www.OpenFOAM.org                      |
|    \\/     M anipulation  |                                                 |
\*---------------------------------------------------------------------------*/
FoamFile
{
    version     2.0;
    format      ascii;
    class       dictionary;
    object      sampleDict;
}
// * * * * * * * * * * * * * * * * * * * * * * * * * * * * * * * * * * * * //

// Set output format.
setFormat jplot;

// optionally define extra controls for the output formats
formatOptions
{
    ensight
    {
        format  ascii;
    }
}

// interpolationScheme.
interpolationScheme cell;

// Fields to sample.
fields
(
    T
    Tr1
    Tr2
    Tr3
    Tr4
    Tr5
    Tr6
    Tr7
    Tr8
    Tr9
);

// Set sampling definition.
sets
(
    samplePoints
    {
        type    cloud;
        axis    xyz;
        points  (
                (201 1 1)
                (203 1 1)
                (205 1 1)
                (207 1 1)
                (209 1 1)
                (211 1 1)
                (213 1 1)
                (215 1 1)
                (217 1 1)
                (219 1 1)
                (221 1 1)
                (223 1 1)
                (225 1 1)
                (227 1 1)
                (229 1 1)
                (231 1 1)
                (233 1 1)
                (235 1 1)
                (237 1 1)
                (239 1 1)
                (241 1 1)
                (243 1 1)
                (245 1 1)
                (247 1 1)
                (249 1 1)
                (251 1 1)
                (253 1 1)
                (255 1 1)
                (257 1 1)
                (259 1 1)
                (261 1 1)
                (263 1 1)
                (265 1 1)
                (267 1 1)
                (269 1 1)
                (271 1 1)
                (273 1 1)
                (275 1 1)
                (277 1 1)
                (279 1 1)
                (281 1 1)
                (283 1 1)
                (285 1 1)
                (287 1 1)
                (289 1 1)
                (291 1 1)
                (293 1 1)
                (295 1 1)
                (297 1 1)
                (299 1 1)
                (301 1 1)
                (303 1 1)
                (305 1 1)
                (307 1 1)
                (309 1 1)
                (311 1 1)
                (313 1 1)
                (315 1 1)
                (317 1 1)
                (319 1 1)
                (321 1 1)
                (323 1 1)
                (325 1 1)
                (327 1 1)
                (329 1 1)
                (331 1 1)
                (333 1 1)
                (335 1 1)
                (337 1 1)
                (339 1 1)
                (341 1 1)
                (343 1 1)
                (345 1 1)
                (347 1 1)
                (349 1 1)
                (351 1 1)
                (353 1 1)
                (355 1 1)
                (357 1 1)
                (359 1 1)
                (361 1 1)
                (363 1 1)
                (365 1 1)
                (367 1 1)
                (369 1 1)
                (371 1 1)
                (373 1 1)
                (375 1 1)
                (377 1 1)
                (379 1 1)
                (381 1 1)
                (383 1 1)
                (385 1 1)
                (387 1 1)
                (389 1 1)
                (391 1 1)
                (393 1 1)
                (395 1 1)
                (397 1 1)
                (399 1 1)
                (401 1 1)
                (403 1 1)
                (405 1 1)
                (407 1 1)
                (409 1 1)
                (411 1 1)
                (413 1 1)
                (415 1 1)
                (417 1 1)
                (419 1 1)
                (421 1 1)
                (423 1 1)
                (425 1 1)
                (427 1 1)
                (429 1 1)
                (431 1 1)
                (433 1 1)
                (435 1 1)
                (437 1 1)
                (439 1 1)
                (441 1 1)
                (443 1 1)
                (445 1 1)
                (447 1 1)
                (449 1 1)
                (451 1 1)
                (453 1 1)
                (455 1 1)
                (457 1 1)
                (459 1 1)
                (461 1 1)
                (463 1 1)
                (465 1 1)
                (467 1 1)
                (469 1 1)
                (471 1 1)
                (473 1 1)
                (475 1 1)
                (477 1 1)
                (479 1 1)
                (481 1 1)
                (483 1 1)
                (485 1 1)
                (487 1 1)
                (489 1 1)
                (491 1 1)
                (493 1 1)
                (495 1 1)
                (497 1 1)
                (499 1 1)
                (501 1 1)
                (503 1 1)
                (505 1 1)
                (507 1 1)
                (509 1 1)
                (511 1 1)
                (513 1 1)
                (515 1 1)
                (517 1 1)
                (519 1 1)
                (521 1 1)
                (523 1 1)
                (525 1 1)
                (527 1 1)
                (529 1 1)
                (531 1 1)
                (533 1 1)
                (535 1 1)
                (537 1 1)
                (539 1 1)
                (541 1 1)
                (543 1 1)
                (545 1 1)
                (547 1 1)
                (549 1 1)
                (551 1 1)
                (553 1 1)
                (555 1 1)
                (557 1 1)
                (559 1 1)
                (561 1 1)
                (563 1 1)
                (565 1 1)
                (567 1 1)
                (569 1 1)
                (571 1 1)
                (573 1 1)
                (575 1 1)
                (577 1 1)
                (579 1 1)
                (581 1 1)
                (583 1 1)
                (585 1 1)
                (587 1 1)
                (589 1 1)
                (591 1 1)
                (593 1 1)
                (595 1 1)
                (597 1 1)
                (599 1 1)
                (601 1 1)
                (603 1 1)
                (605 1 1)
                (607 1 1)
                (609 1 1)
                (611 1 1)
                (613 1 1)
                (615 1 1)
                (617 1 1)
                (619 1 1)
                (621 1 1)
                (623 1 1)
                (625 1 1)
                (627 1 1)
                (629 1 1)
                (631 1 1)
                (633 1 1)
                (635 1 1)
                (637 1 1)
                (639 1 1)
                (641 1 1)
                (643 1 1)
                (645 1 1)
                (647 1 1)
                (649 1 1)
                (651 1 1)
                (653 1 1)
                (655 1 1)
                (657 1 1)
                (659 1 1)
                (661 1 1)
                (663 1 1)
                (665 1 1)
                (667 1 1)
                (669 1 1)
                (671 1 1)
                (673 1 1)
                (675 1 1)
                (677 1 1)
                (679 1 1)
                (681 1 1)
                (683 1 1)
                (685 1 1)
                (687 1 1)
                (689 1 1)
                (691 1 1)
                (693 1 1)
                (695 1 1)
                (697 1 1)
                (699 1 1)
                (701 1 1)
                (703 1 1)
                (705 1 1)
                (707 1 1)
                (709 1 1)
                (711 1 1)
                (713 1 1)
                (715 1 1)
                (717 1 1)
                (719 1 1)
                (721 1 1)
                (723 1 1)
                (725 1 1)
                (727 1 1)
                (729 1 1)
                (731 1 1)
                (733 1 1)
                (735 1 1)
                (737 1 1)
                (739 1 1)
                (741 1 1)
                (743 1 1)
                (745 1 1)
                (747 1 1)
                (749 1 1)
                (751 1 1)
                (753 1 1)
                (755 1 1)
                (757 1 1)
                (759 1 1)
                (761 1 1)
                (763 1 1)
                (765 1 1)
                (767 1 1)
                (769 1 1)
                (771 1 1)
                (773 1 1)
                (775 1 1)
                (777 1 1)
                (779 1 1)
                (781 1 1)
                (783 1 1)
                (785 1 1)
                (787 1 1)
                (789 1 1)
                (791 1 1)
                (793 1 1)
                (795 1 1)
                (797 1 1)
                (799 1 1)
                (801 1 1)
                (803 1 1)
                (805 1 1)
                (807 1 1)
                (809 1 1)
                (811 1 1)
                (813 1 1)
                (815 1 1)
                (817 1 1)
                (819 1 1)
                (821 1 1)
                (823 1 1)
                (825 1 1)
                (827 1 1)
                (829 1 1)
                (831 1 1)
                (833 1 1)
                (835 1 1)
                (837 1 1)
                (839 1 1)
                (841 1 1)
                (843 1 1)
                (845 1 1)
                (847 1 1)
                (849 1 1)
                (201 3 1)
                (203 3 1)
                (205 3 1)
                (207 3 1)
                (209 3 1)
                (211 3 1)
                (213 3 1)
                (215 3 1)
                (217 3 1)
                (219 3 1)
                (221 3 1)
                (223 3 1)
                (225 3 1)
                (227 3 1)
                (229 3 1)
                (231 3 1)
                (233 3 1)
                (235 3 1)
                (237 3 1)
                (239 3 1)
                (241 3 1)
                (243 3 1)
                (245 3 1)
                (247 3 1)
                (249 3 1)
                (251 3 1)
                (253 3 1)
                (255 3 1)
                (257 3 1)
                (259 3 1)
                (261 3 1)
                (263 3 1)
                (265 3 1)
                (267 3 1)
                (269 3 1)
                (271 3 1)
                (273 3 1)
                (275 3 1)
                (277 3 1)
                (279 3 1)
                (281 3 1)
                (283 3 1)
                (285 3 1)
                (287 3 1)
                (289 3 1)
                (291 3 1)
                (293 3 1)
                (295 3 1)
                (297 3 1)
                (299 3 1)
                (301 3 1)
                (303 3 1)
                (305 3 1)
                (307 3 1)
                (309 3 1)
                (311 3 1)
                (313 3 1)
                (315 3 1)
                (317 3 1)
                (319 3 1)
                (321 3 1)
                (323 3 1)
                (325 3 1)
                (327 3 1)
                (329 3 1)
                (331 3 1)
                (333 3 1)
                (335 3 1)
                (337 3 1)
                (339 3 1)
                (341 3 1)
                (343 3 1)
                (345 3 1)
                (347 3 1)
                (349 3 1)
                (351 3 1)
                (353 3 1)
                (355 3 1)
                (357 3 1)
                (359 3 1)
                (361 3 1)
                (363 3 1)
                (365 3 1)
                (367 3 1)
                (369 3 1)
                (371 3 1)
                (373 3 1)
                (375 3 1)
                (377 3 1)
                (379 3 1)
                (381 3 1)
                (383 3 1)
                (385 3 1)
                (387 3 1)
                (389 3 1)
                (391 3 1)
                (393 3 1)
                (395 3 1)
                (397 3 1)
                (399 3 1)
                (401 3 1)
                (403 3 1)
                (405 3 1)
                (407 3 1)
                (409 3 1)
                (411 3 1)
                (413 3 1)
                (415 3 1)
                (417 3 1)
                (419 3 1)
                (421 3 1)
                (423 3 1)
                (425 3 1)
                (427 3 1)
                (429 3 1)
                (431 3 1)
                (433 3 1)
                (435 3 1)
                (437 3 1)
                (439 3 1)
                (441 3 1)
                (443 3 1)
                (445 3 1)
                (447 3 1)
                (449 3 1)
                (451 3 1)
                (453 3 1)
                (455 3 1)
                (457 3 1)
                (459 3 1)
                (461 3 1)
                (463 3 1)
                (465 3 1)
                (467 3 1)
                (469 3 1)
                (471 3 1)
                (473 3 1)
                (475 3 1)
                (477 3 1)
                (479 3 1)
                (481 3 1)
                (483 3 1)
                (485 3 1)
                (487 3 1)
                (489 3 1)
                (491 3 1)
                (493 3 1)
                (495 3 1)
                (497 3 1)
                (499 3 1)
                (501 3 1)
                (503 3 1)
                (505 3 1)
                (507 3 1)
                (509 3 1)
                (511 3 1)
                (513 3 1)
                (515 3 1)
                (517 3 1)
                (519 3 1)
                (521 3 1)
                (523 3 1)
                (525 3 1)
                (527 3 1)
                (529 3 1)
                (531 3 1)
                (533 3 1)
                (535 3 1)
                (537 3 1)
                (539 3 1)
                (541 3 1)
                (543 3 1)
                (545 3 1)
                (547 3 1)
                (549 3 1)
                (551 3 1)
                (553 3 1)
                (555 3 1)
                (557 3 1)
                (559 3 1)
                (561 3 1)
                (563 3 1)
                (565 3 1)
                (567 3 1)
                (569 3 1)
                (571 3 1)
                (573 3 1)
                (575 3 1)
                (577 3 1)
                (579 3 1)
                (581 3 1)
                (583 3 1)
                (585 3 1)
                (587 3 1)
                (589 3 1)
                (591 3 1)
                (593 3 1)
                (595 3 1)
                (597 3 1)
                (599 3 1)
                (601 3 1)
                (603 3 1)
                (605 3 1)
                (607 3 1)
                (609 3 1)
                (611 3 1)
                (613 3 1)
                (615 3 1)
                (617 3 1)
                (619 3 1)
                (621 3 1)
                (623 3 1)
                (625 3 1)
                (627 3 1)
                (629 3 1)
                (631 3 1)
                (633 3 1)
                (635 3 1)
                (637 3 1)
                (639 3 1)
                (641 3 1)
                (643 3 1)
                (645 3 1)
                (647 3 1)
                (649 3 1)
                (651 3 1)
                (653 3 1)
                (655 3 1)
                (657 3 1)
                (659 3 1)
                (661 3 1)
                (663 3 1)
                (665 3 1)
                (667 3 1)
                (669 3 1)
                (671 3 1)
                (673 3 1)
                (675 3 1)
                (677 3 1)
                (679 3 1)
                (681 3 1)
                (683 3 1)
                (685 3 1)
                (687 3 1)
                (689 3 1)
                (691 3 1)
                (693 3 1)
                (695 3 1)
                (697 3 1)
                (699 3 1)
                (701 3 1)
                (703 3 1)
                (705 3 1)
                (707 3 1)
                (709 3 1)
                (711 3 1)
                (713 3 1)
                (715 3 1)
                (717 3 1)
                (719 3 1)
                (721 3 1)
                (723 3 1)
                (725 3 1)
                (727 3 1)
                (729 3 1)
                (731 3 1)
                (733 3 1)
                (735 3 1)
                (737 3 1)
                (739 3 1)
                (741 3 1)
                (743 3 1)
                (745 3 1)
                (747 3 1)
                (749 3 1)
                (751 3 1)
                (753 3 1)
                (755 3 1)
                (757 3 1)
                (759 3 1)
                (761 3 1)
                (763 3 1)
                (765 3 1)
                (767 3 1)
                (769 3 1)
                (771 3 1)
                (773 3 1)
                (775 3 1)
                (777 3 1)
                (779 3 1)
                (781 3 1)
                (783 3 1)
                (785 3 1)
                (787 3 1)
                (789 3 1)
                (791 3 1)
                (793 3 1)
                (795 3 1)
                (797 3 1)
                (799 3 1)
                (801 3 1)
                (803 3 1)
                (805 3 1)
                (807 3 1)
                (809 3 1)
                (811 3 1)
                (813 3 1)
                (815 3 1)
                (817 3 1)
                (819 3 1)
                (821 3 1)
                (823 3 1)
                (825 3 1)
                (827 3 1)
                (829 3 1)
                (831 3 1)
                (833 3 1)
                (835 3 1)
                (837 3 1)
                (839 3 1)
                (841 3 1)
                (843 3 1)
                (845 3 1)
                (847 3 1)
                (849 3 1)
                (201 5 1)
                (203 5 1)
                (205 5 1)
                (207 5 1)
                (209 5 1)
                (211 5 1)
                (213 5 1)
                (215 5 1)
                (217 5 1)
                (219 5 1)
                (221 5 1)
                (223 5 1)
                (225 5 1)
                (227 5 1)
                (229 5 1)
                (231 5 1)
                (233 5 1)
                (235 5 1)
                (237 5 1)
                (239 5 1)
                (241 5 1)
                (243 5 1)
                (245 5 1)
                (247 5 1)
                (249 5 1)
                (251 5 1)
                (253 5 1)
                (255 5 1)
                (257 5 1)
                (259 5 1)
                (261 5 1)
                (263 5 1)
                (265 5 1)
                (267 5 1)
                (269 5 1)
                (271 5 1)
                (273 5 1)
                (275 5 1)
                (277 5 1)
                (279 5 1)
                (281 5 1)
                (283 5 1)
                (285 5 1)
                (287 5 1)
                (289 5 1)
                (291 5 1)
                (293 5 1)
                (295 5 1)
                (297 5 1)
                (299 5 1)
                (301 5 1)
                (303 5 1)
                (305 5 1)
                (307 5 1)
                (309 5 1)
                (311 5 1)
                (313 5 1)
                (315 5 1)
                (317 5 1)
                (319 5 1)
                (321 5 1)
                (323 5 1)
                (325 5 1)
                (327 5 1)
                (329 5 1)
                (331 5 1)
                (333 5 1)
                (335 5 1)
                (337 5 1)
                (339 5 1)
                (341 5 1)
                (343 5 1)
                (345 5 1)
                (347 5 1)
                (349 5 1)
                (351 5 1)
                (353 5 1)
                (355 5 1)
                (357 5 1)
                (359 5 1)
                (361 5 1)
                (363 5 1)
                (365 5 1)
                (367 5 1)
                (369 5 1)
                (371 5 1)
                (373 5 1)
                (375 5 1)
                (377 5 1)
                (379 5 1)
                (381 5 1)
                (383 5 1)
                (385 5 1)
                (387 5 1)
                (389 5 1)
                (391 5 1)
                (393 5 1)
                (395 5 1)
                (397 5 1)
                (399 5 1)
                (401 5 1)
                (403 5 1)
                (405 5 1)
                (407 5 1)
                (409 5 1)
                (411 5 1)
                (413 5 1)
                (415 5 1)
                (417 5 1)
                (419 5 1)
                (421 5 1)
                (423 5 1)
                (425 5 1)
                (427 5 1)
                (429 5 1)
                (431 5 1)
                (433 5 1)
                (435 5 1)
                (437 5 1)
                (439 5 1)
                (441 5 1)
                (443 5 1)
                (445 5 1)
                (447 5 1)
                (449 5 1)
                (451 5 1)
                (453 5 1)
                (455 5 1)
                (457 5 1)
                (459 5 1)
                (461 5 1)
                (463 5 1)
                (465 5 1)
                (467 5 1)
                (469 5 1)
                (471 5 1)
                (473 5 1)
                (475 5 1)
                (477 5 1)
                (479 5 1)
                (481 5 1)
                (483 5 1)
                (485 5 1)
                (487 5 1)
                (489 5 1)
                (491 5 1)
                (493 5 1)
                (495 5 1)
                (497 5 1)
                (499 5 1)
                (501 5 1)
                (503 5 1)
                (505 5 1)
                (507 5 1)
                (509 5 1)
                (511 5 1)
                (513 5 1)
                (515 5 1)
                (517 5 1)
                (519 5 1)
                (521 5 1)
                (523 5 1)
                (525 5 1)
                (527 5 1)
                (529 5 1)
                (531 5 1)
                (533 5 1)
                (535 5 1)
                (537 5 1)
                (539 5 1)
                (541 5 1)
                (543 5 1)
                (545 5 1)
                (547 5 1)
                (549 5 1)
                (551 5 1)
                (553 5 1)
                (555 5 1)
                (557 5 1)
                (559 5 1)
                (561 5 1)
                (563 5 1)
                (565 5 1)
                (567 5 1)
                (569 5 1)
                (571 5 1)
                (573 5 1)
                (575 5 1)
                (577 5 1)
                (579 5 1)
                (581 5 1)
                (583 5 1)
                (585 5 1)
                (587 5 1)
                (589 5 1)
                (591 5 1)
                (593 5 1)
                (595 5 1)
                (597 5 1)
                (599 5 1)
                (601 5 1)
                (603 5 1)
                (605 5 1)
                (607 5 1)
                (609 5 1)
                (611 5 1)
                (613 5 1)
                (615 5 1)
                (617 5 1)
                (619 5 1)
                (621 5 1)
                (623 5 1)
                (625 5 1)
                (627 5 1)
                (629 5 1)
                (631 5 1)
                (633 5 1)
                (635 5 1)
                (637 5 1)
                (639 5 1)
                (641 5 1)
                (643 5 1)
                (645 5 1)
                (647 5 1)
                (649 5 1)
                (651 5 1)
                (653 5 1)
                (655 5 1)
                (657 5 1)
                (659 5 1)
                (661 5 1)
                (663 5 1)
                (665 5 1)
                (667 5 1)
                (669 5 1)
                (671 5 1)
                (673 5 1)
                (675 5 1)
                (677 5 1)
                (679 5 1)
                (681 5 1)
                (683 5 1)
                (685 5 1)
                (687 5 1)
                (689 5 1)
                (691 5 1)
                (693 5 1)
                (695 5 1)
                (697 5 1)
                (699 5 1)
                (701 5 1)
                (703 5 1)
                (705 5 1)
                (707 5 1)
                (709 5 1)
                (711 5 1)
                (713 5 1)
                (715 5 1)
                (717 5 1)
                (719 5 1)
                (721 5 1)
                (723 5 1)
                (725 5 1)
                (727 5 1)
                (729 5 1)
                (731 5 1)
                (733 5 1)
                (735 5 1)
                (737 5 1)
                (739 5 1)
                (741 5 1)
                (743 5 1)
                (745 5 1)
                (747 5 1)
                (749 5 1)
                (751 5 1)
                (753 5 1)
                (755 5 1)
                (757 5 1)
                (759 5 1)
                (761 5 1)
                (763 5 1)
                (765 5 1)
                (767 5 1)
                (769 5 1)
                (771 5 1)
                (773 5 1)
                (775 5 1)
                (777 5 1)
                (779 5 1)
                (781 5 1)
                (783 5 1)
                (785 5 1)
                (787 5 1)
                (789 5 1)
                (791 5 1)
                (793 5 1)
                (795 5 1)
                (797 5 1)
                (799 5 1)
                (801 5 1)
                (803 5 1)
                (805 5 1)
                (807 5 1)
                (809 5 1)
                (811 5 1)
                (813 5 1)
                (815 5 1)
                (817 5 1)
                (819 5 1)
                (821 5 1)
                (823 5 1)
                (825 5 1)
                (827 5 1)
                (829 5 1)
                (831 5 1)
                (833 5 1)
                (835 5 1)
                (837 5 1)
                (839 5 1)
                (841 5 1)
                (843 5 1)
                (845 5 1)
                (847 5 1)
                (849 5 1)
                (201 7 1)
                (203 7 1)
                (205 7 1)
                (207 7 1)
                (209 7 1)
                (211 7 1)
                (213 7 1)
                (215 7 1)
                (217 7 1)
                (219 7 1)
                (221 7 1)
                (223 7 1)
                (225 7 1)
                (227 7 1)
                (229 7 1)
                (231 7 1)
                (233 7 1)
                (235 7 1)
                (237 7 1)
                (239 7 1)
                (241 7 1)
                (243 7 1)
                (245 7 1)
                (247 7 1)
                (249 7 1)
                (251 7 1)
                (253 7 1)
                (255 7 1)
                (257 7 1)
                (259 7 1)
                (261 7 1)
                (263 7 1)
                (265 7 1)
                (267 7 1)
                (269 7 1)
                (271 7 1)
                (273 7 1)
                (275 7 1)
                (277 7 1)
                (279 7 1)
                (281 7 1)
                (283 7 1)
                (285 7 1)
                (287 7 1)
                (289 7 1)
                (291 7 1)
                (293 7 1)
                (295 7 1)
                (297 7 1)
                (299 7 1)
                (301 7 1)
                (303 7 1)
                (305 7 1)
                (307 7 1)
                (309 7 1)
                (311 7 1)
                (313 7 1)
                (315 7 1)
                (317 7 1)
                (319 7 1)
                (321 7 1)
                (323 7 1)
                (325 7 1)
                (327 7 1)
                (329 7 1)
                (331 7 1)
                (333 7 1)
                (335 7 1)
                (337 7 1)
                (339 7 1)
                (341 7 1)
                (343 7 1)
                (345 7 1)
                (347 7 1)
                (349 7 1)
                (351 7 1)
                (353 7 1)
                (355 7 1)
                (357 7 1)
                (359 7 1)
                (361 7 1)
                (363 7 1)
                (365 7 1)
                (367 7 1)
                (369 7 1)
                (371 7 1)
                (373 7 1)
                (375 7 1)
                (377 7 1)
                (379 7 1)
                (381 7 1)
                (383 7 1)
                (385 7 1)
                (387 7 1)
                (389 7 1)
                (391 7 1)
                (393 7 1)
                (395 7 1)
                (397 7 1)
                (399 7 1)
                (401 7 1)
                (403 7 1)
                (405 7 1)
                (407 7 1)
                (409 7 1)
                (411 7 1)
                (413 7 1)
                (415 7 1)
                (417 7 1)
                (419 7 1)
                (421 7 1)
                (423 7 1)
                (425 7 1)
                (427 7 1)
                (429 7 1)
                (431 7 1)
                (433 7 1)
                (435 7 1)
                (437 7 1)
                (439 7 1)
                (441 7 1)
                (443 7 1)
                (445 7 1)
                (447 7 1)
                (449 7 1)
                (451 7 1)
                (453 7 1)
                (455 7 1)
                (457 7 1)
                (459 7 1)
                (461 7 1)
                (463 7 1)