/*--------------------------------*- C++ -*----------------------------------*\
| =========                 |                                                 |
| \\      /  F ield         | OpenFOAM: The Open Source CFD Toolbox           |
|  \\    /   O peration     | Version:  2.1.1                                 |
|   \\  /    A nd           | Web:      www.OpenFOAM.org                      |
|    \\/     M anipulation  |                                                 |
\*---------------------------------------------------------------------------*/
FoamFile
{
    version     2.0;
    format      ascii;
    class       dictionary;
    object      sampleDict;
}
// * * * * * * * * * * * * * * * * * * * * * * * * * * * * * * * * * * * * //

// Set output format.
setFormat jplot;

// optionally define extra controls for the output formats
formatOptions
{
    ensight
    {
        format  ascii;
    }
}

// interpolationScheme.
interpolationScheme cellPoint;

// Fields to sample.
fields
(
);

// Set sampling definition.
sets
(
    samplePoints
    {
        type    cloud;
        axis    xyz;
        points  (